Version 4
SHEET 1 1340 1028
WIRE 224 96 48 96
WIRE 384 96 224 96
WIRE 640 96 464 96
WIRE -1744 112 -1792 112
WIRE -1728 112 -1744 112
WIRE -1696 112 -1728 112
WIRE -1584 112 -1616 112
WIRE -1552 112 -1584 112
WIRE 544 144 128 144
WIRE 832 144 544 144
WIRE -1792 160 -1792 112
WIRE -1728 176 -1728 112
WIRE -1584 176 -1584 112
WIRE -336 272 -960 272
WIRE 48 272 48 96
WIRE 48 272 -336 272
WIRE 448 320 432 320
WIRE 544 320 544 144
WIRE 544 320 448 320
WIRE 832 320 832 144
WIRE -1792 336 -1792 240
WIRE -1728 336 -1728 240
WIRE -1584 336 -1584 240
WIRE 224 336 224 96
WIRE 384 336 224 336
WIRE -336 352 -336 272
WIRE -240 352 -336 352
WIRE -112 352 -160 352
WIRE 544 352 448 352
WIRE 384 368 224 368
WIRE 640 384 640 96
WIRE 640 384 448 384
WIRE -960 496 -960 272
WIRE 128 496 128 144
WIRE 128 496 -224 496
WIRE -336 512 -336 352
WIRE -288 512 -336 512
WIRE -160 528 -224 528
WIRE -288 544 -336 544
WIRE -112 560 -112 352
WIRE -112 560 -224 560
WIRE 544 560 544 352
WIRE 544 560 -16 560
WIRE 224 624 224 368
WIRE 384 624 224 624
WIRE 640 624 640 384
WIRE 640 624 464 624
WIRE -160 640 -160 528
WIRE -16 640 -16 560
WIRE -16 640 -160 640
WIRE -336 720 -336 544
WIRE -272 720 -336 720
WIRE -112 720 -112 560
WIRE -112 720 -192 720
WIRE -16 768 -16 640
WIRE -960 816 -960 576
WIRE -336 816 -336 720
WIRE 224 816 224 624
WIRE -960 976 -960 896
WIRE -336 976 -336 896
WIRE -336 976 -960 976
WIRE -16 976 -16 848
WIRE -16 976 -336 976
WIRE 224 976 224 896
WIRE 224 976 -16 976
WIRE 832 976 832 400
WIRE 832 976 224 976
WIRE -336 1008 -336 976
FLAG -1584 336 0
FLAG -1728 336 0
FLAG -1792 336 0
FLAG -1744 112 Vc2
FLAG -1552 112 Vc1
FLAG -336 1008 0
SYMBOL voltage -16 864 R180
WINDOW 123 0 0 Left 2
WINDOW 39 0 0 Left 2
SYMATTR InstName V2
SYMATTR Value 9
SYMBOL cap -1600 176 R0
SYMATTR InstName C1
SYMATTR Value 10n
SYMBOL res -1600 96 R90
WINDOW 0 0 56 VBottom 2
WINDOW 3 32 56 VTop 2
SYMATTR InstName R
SYMATTR Value 1.48k
SYMBOL cap -1744 176 R0
SYMATTR InstName C2
SYMATTR Value 100n
SYMBOL ind -1776 256 R180
WINDOW 0 36 80 Left 2
WINDOW 3 36 40 Left 2
SYMATTR InstName L1
SYMATTR Value 18m
SYMBOL res -256 368 R270
WINDOW 0 32 56 VTop 2
WINDOW 3 0 56 VBottom 2
SYMATTR InstName R4
SYMATTR Value 22k
SYMATTR SpiceLine tol=5
SYMBOL AutoGenerated\\TL082 -256 528 R0
SYMATTR InstName U1
SYMBOL AutoGenerated\\TL082 416 352 R0
SYMATTR InstName U2
SYMBOL res -176 704 R90
WINDOW 0 0 56 VBottom 2
WINDOW 3 32 56 VTop 2
SYMATTR InstName R5
SYMATTR Value 22k
SYMATTR SpiceLine tol=5
SYMBOL res -320 912 R180
WINDOW 0 36 76 Left 2
WINDOW 3 36 40 Left 2
SYMATTR InstName R6
SYMATTR Value 3.3k
SYMATTR SpiceLine tol=5
SYMBOL res 208 800 R0
SYMATTR InstName R3
SYMATTR Value 2.2k
SYMATTR SpiceLine tol=5
SYMBOL res 480 608 R90
WINDOW 0 0 56 VBottom 2
WINDOW 3 32 56 VTop 2
SYMATTR InstName R2
SYMATTR Value 220
SYMATTR SpiceLine tol=5
SYMBOL res 480 80 R90
WINDOW 0 0 56 VBottom 2
WINDOW 3 32 56 VTop 2
SYMATTR InstName R1
SYMATTR Value 220
SYMATTR SpiceLine tol=5
SYMBOL voltage 832 304 R0
WINDOW 123 0 0 Left 2
WINDOW 39 0 0 Left 2
SYMATTR InstName V1
SYMATTR Value 9
SYMBOL voltage -960 480 R0
WINDOW 123 0 0 Left 2
WINDOW 39 0 0 Left 2
SYMATTR InstName V3
SYMATTR Value 9
SYMBOL res -944 912 R180
WINDOW 0 36 76 Left 2
WINDOW 3 36 40 Left 2
SYMATTR InstName K
SYMATTR Value 100
SYMATTR SpiceLine tol=5
TEXT -1856 280 Left 2 ;I_L1
TEXT 192 624 Left 2 ;E1
TEXT -376 720 Left 2 ;E2
TEXT 1096 -248 Left 2 !.dc V3 -10 10 100mV
