Version 4
SHEET 1 1044 1208
WIRE 832 0 -1440 0
WIRE 224 96 48 96
WIRE 384 96 224 96
WIRE 640 96 464 96
WIRE -944 112 -1200 112
WIRE 544 144 128 144
WIRE 832 144 832 0
WIRE 832 144 544 144
WIRE 1040 144 832 144
WIRE -1200 176 -1200 112
WIRE -1200 176 -1280 176
WIRE -1200 240 -1200 176
WIRE -944 272 -944 112
WIRE -592 272 -944 272
WIRE -576 272 -592 272
WIRE -544 272 -576 272
WIRE -432 272 -464 272
WIRE -400 272 -432 272
WIRE -336 272 -400 272
WIRE 48 272 48 96
WIRE 48 272 -336 272
WIRE 448 320 432 320
WIRE 544 320 544 144
WIRE 544 320 448 320
WIRE 832 320 832 144
WIRE -1376 336 -1408 336
WIRE -576 336 -576 272
WIRE -432 336 -432 272
WIRE 224 336 224 96
WIRE 384 336 224 336
WIRE -1296 352 -1312 352
WIRE -336 352 -336 272
WIRE -240 352 -336 352
WIRE -112 352 -160 352
WIRE 544 352 448 352
WIRE -1376 368 -1584 368
WIRE -1200 368 -1200 320
WIRE -832 368 -1200 368
WIRE 384 368 224 368
WIRE -1280 384 -1280 176
WIRE -1280 384 -1312 384
WIRE 640 384 640 96
WIRE 640 384 448 384
WIRE -1440 400 -1440 0
WIRE -1376 400 -1440 400
WIRE -1200 416 -1200 368
WIRE -576 496 -576 400
WIRE -432 496 -432 400
WIRE 128 496 128 144
WIRE 128 496 -224 496
WIRE -1296 512 -1296 352
WIRE -1200 512 -1200 496
WIRE -1200 512 -1296 512
WIRE -336 512 -336 352
WIRE -288 512 -336 512
WIRE -160 528 -224 528
WIRE -288 544 -336 544
WIRE -112 560 -112 352
WIRE -112 560 -224 560
WIRE 544 560 544 352
WIRE 544 560 -16 560
WIRE -1200 592 -1200 512
WIRE -1072 592 -1200 592
WIRE 224 624 224 368
WIRE 384 624 224 624
WIRE 640 624 640 384
WIRE 640 624 464 624
WIRE -1200 640 -1200 592
WIRE -160 640 -160 528
WIRE -16 640 -16 560
WIRE -16 640 -160 640
WIRE 160 640 -16 640
WIRE -336 720 -336 544
WIRE -272 720 -336 720
WIRE -112 720 -112 560
WIRE -112 720 -192 720
WIRE -1408 752 -1408 336
WIRE -1200 752 -1200 720
WIRE -1200 752 -1408 752
WIRE -752 752 -928 752
WIRE -992 768 -1104 768
WIRE -16 768 -16 640
WIRE -880 784 -928 784
WIRE -1072 800 -1072 592
WIRE -992 800 -1072 800
WIRE -832 816 -832 368
WIRE -832 816 -928 816
WIRE -336 816 -336 720
WIRE 224 816 224 624
WIRE -1200 832 -1200 816
WIRE -1104 832 -1104 768
WIRE -1104 832 -1200 832
WIRE -1200 848 -1200 832
WIRE -336 976 -336 896
WIRE -16 976 -16 848
WIRE -16 976 -336 976
WIRE 224 976 224 896
WIRE 224 976 -16 976
WIRE 832 976 832 400
WIRE 832 976 224 976
WIRE -336 1008 -336 976
WIRE -1200 1120 -1200 928
WIRE -752 1136 -752 752
WIRE 1040 1136 1040 144
WIRE 1040 1136 -752 1136
WIRE -1584 1200 -1584 368
WIRE -880 1200 -880 784
WIRE -880 1200 -1584 1200
WIRE 160 1200 160 640
WIRE 160 1200 -880 1200
FLAG -432 496 0
FLAG -576 496 0
FLAG -1200 1120 0
FLAG -592 272 Vc2
FLAG -400 272 Vc1
FLAG -336 1008 0
SYMBOL voltage -16 864 R180
WINDOW 123 0 0 Left 2
WINDOW 39 0 0 Left 2
SYMATTR InstName V2
SYMATTR Value 9
SYMBOL cap -448 336 R0
SYMATTR InstName C1
SYMATTR Value 10n
SYMBOL res -448 256 R90
WINDOW 0 0 56 VBottom 2
WINDOW 3 28 56 VBottom 2
SYMATTR InstName R
SYMATTR Value 1.88k
SYMBOL cap -592 336 R0
SYMATTR InstName C2
SYMATTR Value 100n
SYMBOL ind -1584 192 R180
WINDOW 0 36 80 Left 2
WINDOW 3 36 40 Left 2
SYMATTR InstName L1
SYMATTR Value 18m
SYMBOL res -256 368 R270
WINDOW 0 32 56 VTop 2
WINDOW 3 0 56 VBottom 2
SYMATTR InstName R4
SYMATTR Value 22k
SYMATTR SpiceLine tol=5
SYMBOL AutoGenerated\\TL082 -256 528 R0
SYMATTR InstName U1
SYMBOL AutoGenerated\\TL082 416 352 R0
SYMATTR InstName U2
SYMBOL res -176 704 R90
WINDOW 0 0 56 VBottom 2
WINDOW 3 32 56 VTop 2
SYMATTR InstName R5
SYMATTR Value 22k
SYMATTR SpiceLine tol=5
SYMBOL res -320 912 R180
WINDOW 0 36 76 Left 2
WINDOW 3 36 40 Left 2
SYMATTR InstName R6
SYMATTR Value 3.3k
SYMATTR SpiceLine tol=5
SYMBOL res 208 800 R0
SYMATTR InstName R3
SYMATTR Value 2.2k
SYMATTR SpiceLine tol=5
SYMBOL res 480 608 R90
WINDOW 0 0 56 VBottom 2
WINDOW 3 32 56 VTop 2
SYMATTR InstName R2
SYMATTR Value 220
SYMATTR SpiceLine tol=5
SYMBOL res 480 80 R90
WINDOW 0 0 56 VBottom 2
WINDOW 3 32 56 VTop 2
SYMATTR InstName R1
SYMATTR Value 220
SYMATTR SpiceLine tol=5
SYMBOL voltage 832 304 R0
WINDOW 123 0 0 Left 2
WINDOW 39 0 0 Left 2
SYMATTR InstName V1
SYMATTR Value 9
SYMBOL res -1216 224 R0
SYMATTR InstName R7
SYMATTR Value 100
SYMATTR SpiceLine tol=5
SYMBOL res -1216 400 R0
SYMATTR InstName R8
SYMATTR Value 1k
SYMATTR SpiceLine tol=5
SYMBOL res -1216 624 R0
SYMATTR InstName R9
SYMATTR Value 1k
SYMATTR SpiceLine tol=5
SYMBOL res -1216 832 R0
SYMATTR InstName R10
SYMATTR Value 1800
SYMBOL AutoGenerated\\TL082 -1344 368 R180
SYMATTR InstName U3
SYMBOL cap -1216 752 R0
SYMATTR InstName C
SYMATTR Value 100n
SYMBOL AutoGenerated\\TL082 -960 784 R0
SYMATTR InstName U4
TEXT -1664 216 Left 2 ;I_L1
TEXT -560 -40 Left 2 !.tran 0 0.1 0 1E-5 startup
TEXT -376 720 Left 2 ;E1
TEXT 184 624 Left 2 ;E2
TEXT -600 224 Left 2 ;(y)
TEXT -416 224 Left 2 ;(x)
TEXT -1712 216 Left 2 ;(z)
